@<TRIPOS>MOLECULE
Temporary file
   25    26     1     0     0
SMALL
NO_CHARGES
                                                  Temporary file created by DASH
@<TRIPOS>ATOM
  1 C1       11.4606     3.9646     6.8156 C.3  1 <1> 0.0
  2 C2        9.0219     4.0491     6.4266 C.ar 1 <1> 0.0
  3 C3        7.7158     3.8086     6.8787 C.ar 1 <1> 0.0
  4 C4        6.6377     4.0969     6.0917 C.ar 1 <1> 0.0
  5 C5        6.7710     4.5790     4.7538 C.ar 1 <1> 0.0
  6 C6        8.0645     4.7498     4.2765 C.ar 1 <1> 0.0
  7 C7        9.1592     4.5302     5.0867 C.ar 1 <1> 0.0
  8 H8       11.5747     2.7969     5.0202 H    1 <1> 0.0
  9 H1a      11.9218     3.1995     7.2235 H    1 <1> 0.0
 10 H1b      11.9277     4.7430     7.2142 H    1 <1> 0.0
 11 H9        9.9664     2.9814     7.8622 H    1 <1> 0.0
 12 H3        7.5837     3.7922     7.8901 H    1 <1> 0.0
 13 H6        8.2573     4.7501     3.2105 H    1 <1> 0.0
 14 H10a      3.7928     2.9742     3.1633 H    1 <1> 0.0
 15 H10b      4.9985     3.0203     3.0290 H    1 <1> 0.0
 16 N8       11.6491     3.7411     5.3754 N.3  1 <1> 0.0
 17 N9       10.0650     3.7507     7.2170 N.2  1 <1> 0.0
 18 N10       4.4595     3.6754     3.5299 N.2  1 <1> 0.0
 19 O11       4.6237     5.9602     4.3302 O.2  1 <1> 0.0
 20 O12       5.9907     5.2719     2.4317 O.2  1 <1> 0.0
 21 O13      11.2021     6.0994     4.8300 O.2  1 <1> 0.0
 22 O14      10.8519     4.3854     3.1334 O.2  1 <1> 0.0
 23 S15       5.4157     4.9774     3.7139 S    1 <1> 0.0
 24 S16      10.7712     4.7945     4.4775 S    1 <1> 0.0
 25 Cl17      5.0588     3.8416     6.7814 Cl   1 <1> 0.0
@<TRIPOS>BOND
  1   1   9  1
  2   1  10  1
  3   1  16  1
  4   1  17  1
  5   2   3 ar
  6   2   7 ar
  7   2  17  1
  8   3   4 ar
  9   3  12  1
 10   4   5 ar
 11   4  25  1
 12   5   6 ar
 13   5  23  1
 14   6   7 ar
 15   6  13  1
 16   7  24  1
 17   8  16  1
 18  11  17  1
 19  14  18  1
 20  15  18  1
 21  16  24  1
 22  18  23  1
 23  19  23  1
 24  20  23  1
 25  21  24  1
 26  22  24  1
