#
#	File Created by: PC Spartan Pro Export
#

@<TRIPOS>MOLECULE
Y:\motherwell\earrings\earrings.mo2
42 45
SMALL
NO_CHARGES


@<TRIPOS>ATOM
    1   C1         0.042075743    -0.644100567     0.788782892    C.ar   1  Molecule001
    2   C2         0.581459199    -1.871807595     3.322594137    C.ar   1  Molecule001
    3   C3        -0.612544809    -1.815903990     1.196269837    C.ar   1  Molecule001
    4   C4         0.975049049    -0.105336115     1.687020979    C.ar   1  Molecule001
    5   C5         1.237177102    -0.704569575     2.922636255    C.ar   1  Molecule001
    6   C6        -0.348567402    -2.414095363     2.432014352    C.ar   1  Molecule001
    7   C7        -0.236334475    -0.011659588    -0.514960554    C.ar   1  Molecule001
    8   C8        -0.767215775     1.193907343    -2.999115177    C.ar   1  Molecule001
    9   C9         0.809840477     0.378558884    -1.373392080    C.ar   1  Molecule001
   10   C10       -1.557473661     0.222620358    -0.943215176    C.ar   1  Molecule001
   11   C11       -1.822105327     0.821820288    -2.178263909    C.ar   1  Molecule001
   12   C12        0.546552192     0.978148722    -2.608561262    C.ar   1  Molecule001
   13   F13       -1.016944873    -3.528301123     2.769478598       F   1  Molecule001
   14   F14       -1.514221190    -2.398038897     0.389637353       F   1  Molecule001
   15   F15        1.638279392     1.019342538     1.374233163       F   1  Molecule001
   16   F16        2.149898294    -0.146691499     3.733657662       F   1  Molecule001
   17   H17       -2.400662231    -0.058667397    -0.314253892       H   1  Molecule001
   18   H18       -2.843124877     0.998572982    -2.501261239       H   1  Molecule001
   19   H19        1.358395556     1.276483240    -3.264274641       H   1  Molecule001
   20   H20        1.848275024     0.216614372    -1.088620795       H   1  Molecule001
   21   F21       -1.020048614     1.768048064    -4.182189361       F   1  Molecule001
   22   C22        0.856571910    -2.498479142     4.617936274    C.ar   1  Molecule001
   23   C23        1.397190547    -3.723741712     7.153872143    C.ar   1  Molecule001
   24   C24        1.493579008    -3.738508434     4.708558083    C.ar   1  Molecule001
   25   C25        0.494118813    -1.882641362     5.818340888    C.ar   1  Molecule001
   26   C26        0.756656571    -2.479487852     7.055133228    C.ar   1  Molecule001
   27   C27        1.758081987    -4.336272003     5.944487067    C.ar   1  Molecule001
   28   C28        1.677070458    -4.353687145     8.459435109    C.ar   1  Molecule001
   29   C29        2.212190434    -5.553895164    10.946210140    C.ar   1  Molecule001
   30   C30        1.376009953    -5.709497320     8.694392190    C.ar   1  Molecule001
   31   C31        2.255202099    -3.619973342     9.513757090    C.ar   1  Molecule001
   32   C32        2.520965262    -4.215688389    10.750258617    C.ar   1  Molecule001
   33   C33        1.642273588    -6.306892255     9.929978607    C.ar   1  Molecule001
   34   F34        1.877212048    -4.369312204     3.587479849       F   1  Molecule001
   35   F35        2.388765156    -5.521472545     5.952214469       F   1  Molecule001
   36   F36        0.364291455    -1.834451052     8.165239269       F   1  Molecule001
   37   F37       -0.134371041    -0.696775817     5.790725918       F   1  Molecule001
   38   F38        2.467203155    -6.125395843    12.129996372       F   1  Molecule001
   39   H39        0.925188226    -6.319616212     7.913253087       H   1  Molecule001
   40   H40        1.407606532    -7.352532015    10.102063414       H   1  Molecule001
   41   H41        2.509552493    -2.569360834     9.382392136       H   1  Molecule001
   42   H42        2.966202914    -3.642539962    11.557314368       H   1  Molecule001


@<TRIPOS>BOND
    1      1      4    ar
    2      4      5    ar
    3      2      5    ar
    4      2      6    ar
    5      3      6    ar
    6      1      3    ar
    7      7     10    ar
    8     10     11    ar
    9      8     11    ar
   10      8     12    ar
   11      9     12    ar
   12      7      9    ar
   13      1      7    1
   14      6     13    1
   15      3     14    1
   16      4     15    1
   17      5     16    1
   18     10     17    1
   19     11     18    1
   20     12     19    1
   21      9     20    1
   22      8     21    1
   23     22     25    ar
   24     25     26    ar
   25     23     26    ar
   26     23     27    ar
   27     24     27    ar
   28     22     24    ar
   29      2     22    1
   30     28     31    ar
   31     31     32    ar
   32     29     32    ar
   33     29     33    ar
   34     30     33    ar
   35     28     30    ar
   36     23     28    1
   37     24     34    1
   38     27     35    1
   39     26     36    1
   40     25     37    1
   41     29     38    1
   42     30     39    1
   43     33     40    1
   44     31     41    1
   45     32     42    1
