#
#	File Created by: PC Spartan Pro Export
#

@<TRIPOS>MOLECULE
uridine
29 30
SMALL
NO_CHARGES


@<TRIPOS>ATOM
    1   N1         9.208500000     4.353900000     3.819300000   N.pl3   1  Molecule001
    2   C2        10.368000000     3.694900000     3.524300000     C.2   1  Molecule001
    3   O3        10.479000000     2.887800000     2.586600000     O.2   1  Molecule001
    4   N4        11.429900000     3.976300000     4.361900000    N.am   1  Molecule001
    5   C5        11.466300000     4.867300000     5.420800000     C.2   1  Molecule001
    6   O6        12.485000000     5.032700000     6.042400000     O.2   1  Molecule001
    7   C7        10.225600000     5.569500000     5.642000000     C.2   1  Molecule001
    8   C8         9.175400000     5.299200000     4.872900000     C.2   1  Molecule001
    9   C9         8.022400000     4.117000000     3.060700000     C.3   1  Molecule001
   10   C10        6.796600000     3.650500000     3.724500000     C.3   1  Molecule001
   11   C11        5.696700000     4.068800000     2.828900000     C.3   1  Molecule001
   12   C12        6.193700000     5.420200000     2.328500000     C.3   1  Molecule001
   13   C13        5.696700000     6.639500000     3.034400000     C.3   1  Molecule001
   14   H14       12.258100000     3.652900000     4.109000000       H   1  Molecule001
   15   H15        8.332200000     3.295000000     2.423300000       H   1  Molecule001
   16   H16        6.800000000     4.040000000     4.730000000       H   1  Molecule001
   17   H17        4.754200000     4.171300000     3.160800000       H   1  Molecule001
   18   H18        5.996500000     5.578100000     1.475000000       H   1  Molecule001
   19   H19        4.650000000     6.700000000     2.750000000       H   1  Molecule001
   20   H20        6.228400000     7.540400000     2.792000000       H   1  Molecule001
   21   H21       10.224233644     6.357083448     6.404185309       H   1  Molecule001
   22   O22        6.879054696     2.262040986     3.955763466     O.3   1  Molecule001
   23   H23        7.647474919     2.149299349     4.516641067       H   1  Molecule001
   24   O24        5.619825840     3.199302917     1.721576567     O.3   1  Molecule001
   25   H25        6.471200207     3.273323511     1.288625486       H   1  Molecule001
   26   O26        5.870159886     6.474194642     4.423891204     O.3   1  Molecule001
   27   H27        6.813021465     6.353887057     4.543482711       H   1  Molecule001
   28   O28        7.598628224     5.349876310     2.425098475     O.3   1  Molecule001
   29   H29        8.267479090     5.864921974     5.111341336       H   1  Molecule001


@<TRIPOS>BOND
    1      1      2    1
    2      2      3    2
    3      4      2    am
    4      5      4    am
    5      6      5    2
    6      7      5    1
    7      8      1    1
    8      9      1    1
    9     10      9    1
   10     11     10    1
   11     12     11    1
   12     13     12    1
   13     14      4    1
   14     15      9    1
   15     16     10    1
   16     17     11    1
   17     18     12    1
   18     19     13    1
   19     20     13    1
   20      7      8    2
   21      7     21    1
   22     22     23    1
   23     10     22    1
   24     24     25    1
   25     11     24    1
   26     26     27    1
   27     13     26    1
   28     12     28    1
   29     28      9    1
   30      8     29    1
