@<TRIPOS>MOLECULE
chlorpropamide
   30    30     1     1     0
SMALL
USER_CHARGES


@<TRIPOS>ATOM
      1 C1         -6.6913    2.0181    4.4280 C.ar      1 <1>         0.0000 
      2 C2         -5.6153    2.7406    3.8996 C.ar      1 <1>         0.0000 
      3 C3         -5.2579    2.5822    2.5589 C.ar      1 <1>         0.0000 
      4 C4         -5.9741    1.6987    1.7451 C.ar      1 <1>         0.0000 
      5 C5         -7.0508    0.9778    2.2716 C.ar      1 <1>         0.0000 
      6 C6         -7.4061    1.1328    3.6160 C.ar      1 <1>         0.0000 
      7 Cl7        -7.1425    2.2225    6.1090 Cl        1 <1>         0.0000 
      8 S8         -5.5826    1.5125    0.0224 S.o2      1 <1>         0.0000 
      9 O9         -6.3084    2.5300   -0.7089 O.2       1 <1>         0.0000 
     10 O10        -5.7381    0.1193   -0.3520 O.2       1 <1>         0.0000 
     11 N11        -3.9889    1.8826   -0.0200 N.am      1 <1>         0.0000 
     12 C12        -3.0671    1.1112    0.6059 C.2       1 <1>         0.0000 
     13 O13        -3.4174    0.1134    1.2145 O.2       1 <1>         0.0000 
     14 N14        -1.7569    1.4563    0.5499 N.am      1 <1>         0.0000 
     15 C15        -0.7490    0.6365    1.2262 C.3       1 <1>         0.0000 
     16 C16         0.6870    1.2074    1.0561 C.3       1 <1>         0.0000 
     17 C17         1.7470    0.3070    1.7481 C.3       1 <1>         0.0000 
     18 H1         -5.0558    3.4268    4.5314 H         1 <1>         0.0000 
     19 H2         -4.4260    3.1515    2.1528 H         1 <1>         0.0000 
     20 H3         -7.6126    0.3009    1.6339 H         1 <1>         0.0000 
     21 H4         -8.2364    0.5643    4.0259 H         1 <1>         0.0000 
     22 H5         -3.7085    2.7008   -0.5253 H         1 <1>         0.0000 
     23 H6         -1.4572    2.2705    0.0500 H         1 <1>         0.0000 
     24 H7         -0.9891    0.5823    2.3013 H         1 <1>         0.0000 
     25 H8         -0.7818   -0.3852    0.8118 H         1 <1>         0.0000 
     26 H9          0.9232    1.2866   -0.0194 H         1 <1>         0.0000 
     27 H10         0.7302    2.2209    1.4901 H         1 <1>         0.0000 
     28 H11         2.7503    0.7459    1.6235 H         1 <1>         0.0000 
     29 H12         1.5355    0.2181    2.8257 H         1 <1>         0.0000 
     30 H13         1.7506   -0.7028    1.3057 H         1 <1>         0.0000 
@<TRIPOS>BOND
     1    2    1 ar   
     2    3    2 ar   
     3    4    3 ar   
     4    5    4 ar   
     5    6    5 ar   
     6    1    6 ar   
     7    1    7 1    
     8    4    8 1    
     9    8    9 2    
    10    8   10 2    
    11    8   11 1    
    12   11   12 am   
    13   12   13 2    
    14   12   14 am   
    15   14   15 1    
    16   15   16 1    
    17   16   17 1    
    18    2   18 1    
    19    3   19 1    
    20    5   20 1    
    21    6   21 1    
    22   11   22 1    
    23   14   23 1    
    24   15   24 1    
    25   15   25 1    
    26   16   26 1    
    27   16   27 1    
    28   17   28 1    
    29   17   29 1    
    30   17   30 1    
