#
#	File Created by: PC Spartan Pro Export
#

@<TRIPOS>MOLECULE
uridine
29 30
SMALL
NO_CHARGES


@<TRIPOS>ATOM
    1   C1        -0.119979079    -0.645925538     0.966857871     C.3   1  Molecule001
    2   C2         1.021401362     0.154293884     1.570766626     C.3   1  Molecule001
    3   C3         0.380395082     0.728094669     2.850946132     C.3   1  Molecule001
    4   C4        -1.328561317     0.198919070     1.350287654     C.3   1  Molecule001
    5   H5        -0.160068977    -1.639420620     1.426215592       H   1  Molecule001
    6   H6         1.915408340    -0.453767709     1.738248661       H   1  Molecule001
    7   H7         0.677119598     1.776042575     2.981736273       H   1  Molecule001
    8   H8        -1.435712593     1.052690844     0.668638264       H   1  Molecule001
    9   O9         1.384957828     1.195156362     0.637635024     O.3   1  Molecule001
   10   H10        2.133130525     1.679250052     1.038651597       H   1  Molecule001
   11   O11        0.015940622    -0.790222597    -0.445250675     O.3   1  Molecule001
   12   H12        0.509392428     0.004018720    -0.741046474       H   1  Molecule001
   13   O13       -1.051360488     0.727003398     2.664955438     O.3   1  Molecule001
   14   C14       -2.648469385    -0.575976993     1.347547831     C.3   1  Molecule001
   15   H15       -2.897018309    -0.910177338     0.334966145       H   1  Molecule001
   16   H16       -3.456258429     0.059518418     1.724332003       H   1  Molecule001
   17   O17       -2.585036719    -1.726198320     2.192921844     O.3   1  Molecule001
   18   H18       -3.443444118    -2.178449146     2.109923126       H   1  Molecule001
   19   N19        0.756921189     0.005041075     4.070379594     N.3   1  Molecule001
   20   C20        2.039112710     0.237791077     4.560802540     C.2   1  Molecule001
   21   O21        2.852789879     0.975702130     4.006926127     O.2   1  Molecule001
   22   N22        2.365760306    -0.425602365     5.716950024     N.3   1  Molecule001
   23   H23        3.286580099    -0.269037198     6.095173315       H   1  Molecule001
   24   C24        1.568592628    -1.308889913     6.386926130     C.2   1  Molecule001
   25   O25        1.923911752    -1.893289630     7.401828121     O.2   1  Molecule001
   26   C26        0.235591919    -1.533550372     5.806126025     C.2   1  Molecule001
   27   H27       -0.423229046    -2.226149253     6.311458339       H   1  Molecule001
   28   C28       -0.105313397    -0.878333815     4.693828637     C.2   1  Molecule001
   29   H29       -1.087576232    -1.025112417     4.252222917       H   1  Molecule001


@<TRIPOS>BOND
    1      1      5    1
    2      1      2    1
    3      1      4    1
    4      2      6    1
    5      2      3    1
    6      3      7    1
    7      4      8    1
    8      9     10    1
    9      2      9    1
   10     11     12    1
   11      1     11    1
   12      4     13    1
   13     13      3    1
   14     14     15    1
   15     14     16    1
   16      4     14    1
   17     17     18    1
   18     14     17    1
   19      3     19    1
   20     19     20    1
   21     20     21    2
   22     22     23    1
   23     20     22    1
   24     24     22    1
   25     24     25    2
   26     26     27    1
   27     24     26    1
   28     28     29    1
   29     19     28    1
   30     28     26    2
