@<TRIPOS>MOLECULE
83267-ICSD
    7    4     3
SMALL
NO_CHARGES
****
Generated from the CSD

@<TRIPOS>ATOM
     1 Zr1     -0.0027    4.5827    4.5772 Zr        3 RES3   0.0000
     2 W1       1.4546    6.0346    7.7053 W         1 RES1   0.0000
     3 O1       2.4402    7.0202    6.7197 O         1 RES1   0.0000
     4 W2       0.9233   -0.9233    3.6566 W         2 RES2   0.0000
     5 O2       0.5175   -2.6344    3.9443 O         2 RES2   0.0000
     6 O3      -0.0769    0.0769    4.6569 O         2 RES2   0.0000
     7 O4       0.4855    7.2629    8.5902 O         1 RES1   0.0000
@<TRIPOS>BOND
     1     2  3  1 
     2     2  7  1  
     3     4  5  1  
     4     4  6  1  
@<TRIPOS>SUBSTRUCTURE
     1 RES1        1 GROUP             0 ****  ****    0 
     2 RES2        1 GROUP             0 ****  ****    0 
     3 RES3        1 GROUP             0 ****  ****    0 
@<TRIPOS>CRYSIN
    9.1599    9.1599    9.1599   90.0000   90.0000   90.0000   198     1

