@<TRIPOS>MOLECULE
HCSBTZ
    25    26     1
SMALL       
NO_CHARGES
****        
Generated from the CSD                                                     
@<TRIPOS>ATOM
      1 C1         0.2630    1.0404    8.5215 C.3       1 RES1
      2 C2         0.8204    0.9416    6.1165 C.ar      1 RES1
      3 C3         1.7336    1.1725    5.0757 C.ar      1 RES1
      4 C4         1.4087    0.8802    3.7813 C.ar      1 RES1
      5 C5         0.1160    0.4030    3.4040 C.ar      1 RES1
      6 C6        -0.8135    0.2420    4.4225 C.ar      1 RES1
      7 C7        -0.4741    0.4653    5.7402 C.ar      1 RES1
      8 N1        -1.1410    1.2696    8.1517 N.pl3     1 RES1
      9 N2         1.1624    1.2441    7.3794 N.pl3     1 RES1
     10 N3        -0.1651    1.3037    0.8020 N.4       1 RES1
     11 O1         0.5389   -0.9748    1.2545 O.2       1 RES1
     12 O2        -1.7401   -0.3085    1.8130 O.2       1 RES1
     13 O3        -1.4902   -1.0898    7.5439 O.2       1 RES1
     14 O4        -2.9214    0.6280    6.5719 O.2       1 RES1
     15 S1        -0.3391    0.0000    1.7582 S.o2      1 RES1
     16 S2        -1.6474    0.2139    7.0059 S.o2      1 RES1
     17 Cl1        2.6440    1.1231    2.5778 Cl        1 RES1
     18 H1C1       0.3713    0.0233    8.8773 H         1 RES1
     19 H2C1       0.5356    1.7298    9.3110 H         1 RES1
     20 H1C3       2.7079    1.5876    5.3017 H         1 RES1
     21 H1C6      -1.8231   -0.0644    4.1777 H         1 RES1
     22 H1N1      -1.7220    1.9895    8.5544 H         1 RES1
     23 H1N2       2.0792    1.6289    7.5511 H         1 RES1
     24 H1N3      -0.4280    1.0667   -0.1429 H         1 RES1
     25 H3N3      -0.7562    2.0495    1.1373 H         1 RES1
@<TRIPOS>BOND
     1     1     8    1 
     2     1     9    1 
     3     1    18    1 
     4     1    19    1 
     5     2     3    ar
     6     2     7    ar
     7     2     9    1 
     8     3     4    ar
     9     3    20    1 
    10     4     5    ar
    11     4    17    1 
    12     5     6    ar
    13     5    15    1 
    14     6     7    ar
    15     6    21    1 
    16     7    16    1 
    17     8    16    1 
    18     8    22    1 
    19     9    23    1 
    20    10    15    1 
    21    10    24    1 
    22    10    25    1 
    23    11    15    2 
    24    12    15    2 
    25    13    16    2 
    26    14    16    2 
@<TRIPOS>SUBSTRUCTURE
     1 RES1       1
@<TRIPOS>CRYSIN
    7.4190    8.5210   10.0030   90.0000  111.7200   90.0000     4     1
  
