#
#	File Created by: PC Spartan Pro Export
#

@<TRIPOS>MOLECULE
trans-cimetidine
33 33
SMALL
NO_CHARGES


@<TRIPOS>ATOM
    1   N1        -0.029722087    -0.218840770    -0.353928445   N.pl3   1  Molecule001
    2   C2        -1.313478763     0.056774159    -0.962543977     C.3   1  Molecule001
    3   H3        -1.154569221     0.436277657    -1.974297965       H   1  Molecule001
    4   H4        -1.816359426     0.868807702    -0.432413026       H   1  Molecule001
    5   C5        -2.175760245    -1.202798290    -0.908738452     C.3   1  Molecule001
    6   H6        -1.633364207    -2.084989118    -1.262510602       H   1  Molecule001
    7   H7        -2.466558991    -1.410283195     0.119895479       H   1  Molecule001
    8   S8        -3.663570644    -1.049245286    -1.911037769     S.3   1  Molecule001
    9   C9        -2.826572938    -1.016437436    -3.509400783     C.3   1  Molecule001
   10   H10       -2.262115422    -0.084235238    -3.601341013       H   1  Molecule001
   11   H11       -2.102969939    -1.841597360    -3.540019427       H   1  Molecule001
   12   C12       -3.708749748    -1.110417982    -4.689148248     C.2   1  Molecule001
   13   C13       -3.288005722    -1.234562440    -5.996730716     C.2   1  Molecule001
   14   N14       -4.437148471    -1.264781989    -6.730426154   N.pl3   1  Molecule001
   15   H15       -4.505653064    -1.358269025    -7.732193418       H   1  Molecule001
   16   C16       -5.487344251    -1.144301772    -5.869541701     C.2   1  Molecule001
   17   H17       -6.519244169    -1.133609404    -6.188047645       H   1  Molecule001
   18   N18       -5.075945386    -1.044023710    -4.629206399     N.2   1  Molecule001
   19   C19       -1.929591213    -1.329824078    -6.570599015     C.3   1  Molecule001
   20   H20       -1.170556387    -0.977714709    -5.861241025       H   1  Molecule001
   21   H21       -1.843647991    -0.722364843    -7.473301325       H   1  Molecule001
   22   H22       -1.702582222    -2.372535251    -6.800875900       H   1  Molecule001
   23   H23        0.090675469     0.122316996     0.596071654       H   1  Molecule001
   24   C24        1.148013472    -0.564272923    -0.965116228     C.2   1  Molecule001
   25   N25        2.192606332    -0.467819097    -0.206733305     N.2   1  Molecule001
   26   C26        3.395614347    -0.809234066    -0.658879667     C.1   1  Molecule001
   27   N27        4.434604421    -1.123675126    -1.064579328     N.1   1  Molecule001
   28   N28        0.970936769    -0.936583049    -2.278712968   N.pl3   1  Molecule001
   29   H29        0.095922985    -1.410301277    -2.457462464       H   1  Molecule001
   30   C30        1.998676614    -1.330001989    -3.218756929     C.3   1  Molecule001
   31   H31        2.773339260    -0.560020539    -3.310962958       H   1  Molecule001
   32   H32        1.540653342    -1.463264000    -4.206411003       H   1  Molecule001
   33   H33        2.460517018    -2.278293226    -2.922752762       H   1  Molecule001


@<TRIPOS>BOND
    1      2      3    1
    2      2      4    1
    3      1      2    1
    4      5      6    1
    5      5      7    1
    6      2      5    1
    7      5      8    1
    8      9     10    1
    9      9     11    1
   10      8      9    1
   11      9     12    1
   12     12     13    2
   13     14     15    1
   14     13     14    1
   15     16     17    1
   16     14     16    1
   17     16     18    2
   18     12     18    1
   19     19     20    1
   20     19     21    1
   21     19     22    1
   22     13     19    1
   23      1     23    1
   24      1     24    1
   25     24     25    2
   26     25     26    1
   27     26     27    3
   28     28     29    1
   29     24     28    1
   30     30     31    1
   31     30     32    1
   32     30     33    1
   33     28     30    1
