#
#	File Created by: PC Spartan Pro Export
#

@<TRIPOS>MOLECULE
cis-cimeditine
33 33
SMALL
NO_CHARGES


@<TRIPOS>ATOM
    1   C1        -0.025031533    -0.091521510     1.210931245     C.2   1  Molecule001
    2   N2         0.979095235    -0.530943583     1.905156698     N.2   1  Molecule001
    3   C3         2.100055226    -0.858658323     1.261664151     C.1   1  Molecule001
    4   N4         3.043840022    -1.136294662     0.647742887     N.1   1  Molecule001
    5   N5        -1.193243901     0.280025688     1.818683462   N.pl3   1  Molecule001
    6   H6        -1.551691551     1.170363962     1.495042595       H   1  Molecule001
    7   C7        -1.416596031     0.064434117     3.227878203     C.3   1  Molecule001
    8   H8        -0.678005972     0.597304702     3.832722841       H   1  Molecule001
    9   H9        -1.377870209    -1.006845473     3.440166630       H   1  Molecule001
   10   H10       -2.414236455     0.427482934     3.481840789       H   1  Molecule001
   11   N11       -0.095217887     0.061052662    -0.155665696   N.pl3   1  Molecule001
   12   H12        0.701237528    -0.289398625    -0.681427141       H   1  Molecule001
   13   C13       -1.323433001     0.100867528    -0.948964603     C.3   1  Molecule001
   14   H14       -1.006808717     0.277608822    -1.980717560       H   1  Molecule001
   15   H15       -1.937187788     0.964328501    -0.671114741       H   1  Molecule001
   16   C16       -2.132315660    -1.198733975    -0.852247973     C.3   1  Molecule001
   17   H17       -1.539062243    -2.054612974    -1.188485225       H   1  Molecule001
   18   H18       -2.444103206    -1.403473695     0.170349174       H   1  Molecule001
   19   S19       -3.646539817    -1.142144793    -1.853308737     S.3   1  Molecule001
   20   C20       -2.828417843    -1.045523305    -3.453035584     C.3   1  Molecule001
   21   H21       -2.307409778    -0.087291000    -3.498535505       H   1  Molecule001
   22   H22       -2.081953654    -1.845568435    -3.473939492       H   1  Molecule001
   23   C23       -3.691686559    -1.137067766    -4.664628949     C.2   1  Molecule001
   24   C24       -3.266384241    -1.255188504    -5.979005696     C.2   1  Molecule001
   25   N25       -4.412923019    -1.273756295    -6.724923383   N.pl3   1  Molecule001
   26   H26       -4.473999210    -1.351265065    -7.729244912       H   1  Molecule001
   27   C27       -5.462610471    -1.139063569    -5.867750576     C.2   1  Molecule001
   28   H28       -6.488929677    -1.103506021    -6.188344505       H   1  Molecule001
   29   N29       -5.061199613    -1.049690628    -4.623078861     N.2   1  Molecule001
   30   C30       -1.908036222    -1.344160281    -6.560260134     C.3   1  Molecule001
   31   H31       -1.160837611    -1.002830491    -5.831728504       H   1  Molecule001
   32   H32       -1.808942536    -0.716528205    -7.448045128       H   1  Molecule001
   33   H33       -1.675014895    -2.380417821    -6.814370299       H   1  Molecule001


@<TRIPOS>BOND
    1      1      2    2
    2      2      3    1
    3      3      4    3
    4      5      6    1
    5      1      5    1
    6      7      8    1
    7      7      9    1
    8      7     10    1
    9      5      7    1
   10     11     12    1
   11      1     11    1
   12     13     14    1
   13     13     15    1
   14     11     13    1
   15     16     17    1
   16     16     18    1
   17     13     16    1
   18     16     19    1
   19     20     21    1
   20     20     22    1
   21     19     20    1
   22     20     23    1
   23     23     24    2
   24     25     26    1
   25     24     25    1
   26     27     28    1
   27     25     27    1
   28     27     29    2
   29     23     29    1
   30     30     31    1
   31     30     32    1
   32     30     33    1
   33     24     30    1
