@<TRIPOS>MOLECULE
HCSBTZ
    25    26     1
SMALL       
NO_CHARGES  
****        
Generated from the CSD                                                     
@<TRIPOS>ATOM
     1 C1       0.2630    1.0404    8.5215    C.3       1 RES1      0.0000
     2 C2       0.8204    0.9416    6.1165    C.ar      1 RES1      0.0000
     3 C3       1.7336    1.1725    5.0757    C.ar      1 RES1      0.0000
     4 C4       1.4087    0.8802    3.7813    C.ar      1 RES1      0.0000
     5 C5       0.1160    0.4030    3.4040    C.ar      1 RES1      0.0000
     6 C6      -0.8135    0.2420    4.4225    C.ar      1 RES1      0.0000
     7 C7      -0.4741    0.4653    5.7402    C.ar      1 RES1      0.0000
     8 H1      -1.4364    2.2155    7.9454    H         1 RES1      0.0000
     9 H2       0.4712    1.8065    9.0977    H         1 RES1      0.0000
    10 H3       0.4527    0.2642    9.1070    H         1 RES1      0.0000
    11 H4       1.8016    2.0110    7.5272    H         1 RES1      0.0000
    12 H5       2.7198    1.1844    5.3341    H         1 RES1      0.0000
    13 H6      -1.8735    0.2471    4.2004    H         1 RES1      0.0000
    14 H7      -0.2633    2.0024    0.0465    H         1 RES1      0.0000
    15 H8      -0.8374    1.9513    1.1151    H         1 RES1      0.0000
    16 N1      -1.1410    1.2696    8.1517    N.pl3     1 RES1      0.0000
    17 N2       1.1624    1.2441    7.3794    N.pl3     1 RES1      0.0000
    18 N3      -0.1651    1.3037    0.8020    N.pl3     1 RES1      0.0000
    19 O1       0.5389   -0.9748    1.2545    O.2       1 RES1      0.0000
    20 O2      -1.7401   -0.3085    1.8130    O.2       1 RES1      0.0000
    21 O3      -1.4902   -1.0898    7.5439    O.2       1 RES1      0.0000
    22 O4      -2.9214    0.6280    6.5719    O.2       1 RES1      0.0000
    23 S1      -0.3391    0.0000    1.7582    S.o2      1 RES1      0.0000
    24 S2      -1.6475    0.2139    7.0059    S.o2      1 RES1      0.0000
    25 Cl1      2.6440    1.1231    2.5778    Cl        1 RES1      0.0000
@<TRIPOS>BOND
     1     1     9    1 
     2     1    10    1 
     3     1    16    1 
     4     1    17    1 
     5     2     3    ar
     6     2     7    ar
     7     2    17    1 
     8     3     4    ar
     9     3    12    1 
    10     4     5    ar
    11     4    25    1 
    12     5     6    ar
    13     5    23    1 
    14     6     7    ar
    15     6    13    1 
    16     7    24    1 
    17     8    16    1 
    18    11    17    1 
    19    14    18    1 
    20    15    18    1 
    21    16    24    1 
    22    18    23    1 
    23    19    23    2 
    24    20    23    2 
    25    21    24    2 
    26    22    24    2 
@<TRIPOS>SUBSTRUCTURE
     1 RES1       1
@<TRIPOS>CRYSIN
    7.4190    8.5210   10.0030   90.0000  111.7200   90.0000     4     1
 
