#
#	File Created by: PC Spartan Pro Export
#

@<TRIPOS>MOLECULE
decafluoroquaterphenyl
21 22
SMALL
NO_CHARGES


@<TRIPOS>ATOM
    1   C1         0.123472620    -0.374079363     0.926861482    C.ar   1  Molecule001
    2   C2         0.596434544    -1.806990475     3.339314003    C.ar   1  Molecule001
    3   C3        -0.592264766    -1.540397254     1.246157909    C.ar   1  Molecule001
    4   C4         1.084895367     0.047896823     1.860740512    C.ar   1  Molecule001
    5   C5         1.314252355    -0.658383772     3.043797788    C.ar   1  Molecule001
    6   C6        -0.357286650    -2.240891495     2.431550050    C.ar   1  Molecule001
    7   C7        -0.121881645     0.369259251    -0.324625177    C.ar   1  Molecule001
    8   C8        -0.589296348     1.785364232    -2.708782905    C.ar   1  Molecule001
    9   C9         0.943867883     0.780980752    -1.148338110    C.ar   1  Molecule001
   10   C10       -1.429819796     0.691285564    -0.736251816    C.ar   1  Molecule001
   11   C11       -1.662995766     1.394948396    -1.921566745    C.ar   1  Molecule001
   12   C12        0.712299677     1.485332131    -2.333559269    C.ar   1  Molecule001
   13   F13       -1.058545911    -3.349996348     2.702069215       F   1  Molecule001
   14   F14       -1.520170523    -2.014890562     0.399673947       F   1  Molecule001
   15   F15        1.802390360     1.159862008     1.633975320       F   1  Molecule001
   16   F16        2.238672158    -0.225378208     3.911560979       F   1  Molecule001
   17   H17       -2.287016746     0.397334463    -0.132520120       H   1  Molecule001
   18   H18       -2.674149449     1.638374396    -2.231830867       H   1  Molecule001
   19   H19        1.539388899     1.799557820    -2.962158862       H   1  Molecule001
   20   H20        1.973063014     0.553836817    -0.874752953       H   1  Molecule001
   21   F21       -0.811878755     2.459711978    -3.844116383       F   1  Molecule001


@<TRIPOS>BOND
    1      1      4    ar
    2      4      5    ar
    3      2      5    ar
    4      2      6    ar
    5      3      6    ar
    6      1      3    ar
    7      7     10    ar
    8     10     11    ar
    9      8     11    ar
   10      8     12    ar
   11      9     12    ar
   12      7      9    ar
   13      1      7    1
   14      6     13    1
   15      3     14    1
   16      4     15    1
   17      5     16    1
   18     10     17    1
   19     11     18    1
   20     12     19    1
   21      9     20    1
   22      8     21    1
